6
no title
C          0.66548        0.00000       -0.00000
C         -0.66547       -0.00000        0.00000
H          1.23958       -0.92359       -0.00000
H          1.23958        0.92359       -0.00000
H         -1.23958       -0.92359        0.00000
H         -1.23958        0.92359        0.00000
