24
2519
O          1.62190       -5.09130       -2.78680
O         -0.89740       -1.16100       -3.25500
N          0.65210       -1.27090       -1.52260
N          2.90050       -3.73260       -0.44830
N          0.34820       -3.13320       -3.04120
N          2.35610       -1.67250        0.20720
C          1.92980       -3.30250       -1.30690
C          1.61500       -2.04010       -0.88370
C          1.32450       -3.95740       -2.42100
C         -0.03080       -1.79930       -2.64660
C          3.12280       -2.71670        0.44510
C          0.34550        0.07030       -1.04110
C          3.57970       -5.00620       -0.45660
C         -0.34280       -3.69460       -4.19740
H          3.84990       -2.79250        1.24230
H         -0.00300        0.00460       -0.00580
H         -0.43030        0.54840       -1.64440
H          1.25340        0.67970       -1.08630
H          4.30240       -5.04010        0.36270
H          2.83590       -5.79600       -0.32580
H          4.09900       -5.11530       -1.41190
H         -0.00970       -4.70580       -4.44130
H         -0.17100       -3.04040       -5.05810
H         -1.41730       -3.70880       -3.98880
